


 35 37  0  0  0  0  0  0  0  0999 V2000
  -33.8941  -19.4185   -8.3909 C   0  0  0  0  0  0  0  0  0  0  0  0
  -33.0381  -18.2952   -8.3534 O   0  0  0  0  0  0  0  0  0  0  0  0
  -32.4860  -18.2224   -7.0587 C   0  0  0  0  0  0  0  0  0  0  0  0
  -32.5324  -19.6171   -6.4469 C   0  0  0  0  0  0  0  0  0  0  0  0
  -32.6422  -19.5646   -5.0480 O   0  0  0  0  0  0  0  0  0  0  0  0
  -33.7659  -20.2107   -7.0859 C   0  0  0  0  0  0  0  0  0  0  0  0
  -34.9053  -19.9933   -6.2894 O   0  0  0  0  0  0  0  0  0  0  0  0
  -31.7336  -19.3695   -4.6990 H   0  0  0  0  0  0  0  0  0  0  0  0
  -34.9409  -20.7358   -5.6312 H   0  0  0  0  0  0  0  0  0  0  0  0
  -33.5169  -22.7598  -13.4735 N   0  0  0  0  0  0  0  0  0  0  0  0
  -34.2557  -22.0673  -12.4671 C   0  0  0  0  0  0  0  0  0  0  0  0
  -35.6210  -22.0280  -12.5117 N   0  0  0  0  0  0  0  0  0  0  0  0
  -36.3480  -21.3740  -11.5494 C   0  0  0  0  0  0  0  0  0  0  0  0
  -35.7175  -20.7457  -10.5120 N   0  0  0  0  0  0  0  0  0  0  0  0
  -34.3652  -20.7883  -10.4693 C   0  0  0  0  0  0  0  0  0  0  0  0
  -33.6257  -21.4258  -11.4056 C   0  0  0  0  0  0  0  0  0  0  0  0
  -32.3139  -21.3194  -11.1268 N   0  0  0  0  0  0  0  0  0  0  0  0
  -32.3098  -20.5892   -9.9761 C   0  0  0  0  0  0  0  0  0  0  0  0
  -33.5549  -20.2620   -9.5403 N   0  0  0  0  0  0  0  0  0  0  0  0
  -32.4728  -22.8062  -13.4384 H   0  0  0  0  0  0  0  0  0  0  0  0
  -34.0169  -23.2215  -14.2665 H   0  0  0  0  0  0  0  0  0  0  0  0
  -31.0584  -17.6727   -7.1303 C   0  0  0  0  0  0  0  0  0  0  0  0
  -30.3748  -18.0085   -5.9453 O   0  0  0  0  0  0  0  0  0  0  0  0
  -28.8391  -18.6250   -6.3597 P   0  0  0  0  0  0  0  0  0  0  0  0
  -28.9424  -20.1082   -6.6364 O   0  0  0  0  0  0  0  0  0  0  0  0
  -27.7869  -18.4017   -5.0530 O   0  0  0  0  0  0  0  0  0  0  0  0
  -28.2364  -17.8503   -7.7528 O   0  0  0  0  0  0  0  0  0  0  0  0
  -26.5375  -17.8229   -7.6373 P   0  0  0  0  0  0  0  0  0  0  0  0
  -26.0637  -19.0765   -6.9350 O   0  0  0  0  0  0  0  0  0  0  0  0
  -25.9118  -17.8054   -9.2097 O   0  0  0  0  0  0  0  0  0  0  0  0
  -26.0282  -16.4365   -6.7845 O   0  0  0  0  0  0  0  0  0  0  0  0
  -24.5828  -16.8050   -5.9560 P   0  0  0  0  0  0  0  0  0  0  0  0
  -24.9869  -17.6366   -4.5396 O   0  0  0  0  0  0  0  0  0  0  0  0
  -23.5520  -17.7883   -6.8735 O   0  0  0  0  0  0  0  0  0  0  0  0
  -23.7526  -15.3524   -5.5207 S   0  0  0  0  0  0  0  0  0  0  0  0
 10 11  1  0  0  0
 10 20  1  0  0  0
 10 21  1  0  0  0
 11 12  2  0  0  0
 11 16  1  0  0  0
 12 13  1  0  0  0
 13 14  2  0  0  0
 14 15  1  0  0  0
 15 16  2  0  0  0
 15 19  1  0  0  0
 16 17  1  0  0  0
 17 18  2  0  0  0
 18 19  1  0  0  0
 19  1  1  0  0  0
  1  2  1  0  0  0
  1  6  1  0  0  0
  2  3  1  0  0  0
  3 22  1  0  0  0
  3  4  1  0  0  0
 22 23  1  0  0  0
 23 24  1  0  0  0
 24 25  2  0  0  0
 24 26  1  0  0  0
 24 27  1  0  0  0
 27 28  1  0  0  0
 28 29  2  0  0  0
 28 30  1  0  0  0
 28 31  1  0  0  0
 31 32  1  0  0  0
 32 33  1  0  0  0
 32 34  1  0  0  0
 32 35  2  0  0  0
  4  5  1  0  0  0
  4  6  1  0  0  0
  5  8  1  0  0  0
  6  7  1  0  0  0
  7  9  1  0  0  0
M  CHG 1  26  -1
M  CHG 1  30  -1
M  CHG 1  33  -1
M  CHG 1  34  -1
M  END
> <COMPND>
    ../0-casp/DBelp1.pdb 

> <AUTHOR>
    GENERATED BY OPEN BABEL 3.1.0

> <MASTER>
        0    0    0    0    0    0    0    0   43    0   43    0

> <minimizedAffinity>
-10.89915

> <CNNscore>
0.7629405260

> <CNNaffinity>
5.5337586403

> <CNN_VS>
4.2219285965

> <CNNaffinity_variance>
0.1210615262

$$$$



 35 37  0  0  0  0  0  0  0  0999 V2000
  -34.5423  -19.1878   -8.1390 C   0  0  0  0  0  0  0  0  0  0  0  0
  -33.5469  -18.1865   -8.1859 O   0  0  0  0  0  0  0  0  0  0  0  0
  -32.6879  -18.3867   -7.0867 C   0  0  0  0  0  0  0  0  0  0  0  0
  -32.7881  -19.8489   -6.6698 C   0  0  0  0  0  0  0  0  0  0  0  0
  -32.5403  -20.0134   -5.2975 O   0  0  0  0  0  0  0  0  0  0  0  0
  -34.2150  -20.1915   -7.0287 C   0  0  0  0  0  0  0  0  0  0  0  0
  -35.0775  -19.9832   -5.9366 O   0  0  0  0  0  0  0  0  0  0  0  0
  -31.5551  -19.9786   -5.1807 H   0  0  0  0  0  0  0  0  0  0  0  0
  -35.0591  -20.8147   -5.3943 H   0  0  0  0  0  0  0  0  0  0  0  0
  -33.8446  -22.2552  -13.3586 N   0  0  0  0  0  0  0  0  0  0  0  0
  -33.3319  -21.6028  -12.1967 C   0  0  0  0  0  0  0  0  0  0  0  0
  -31.9852  -21.5393  -11.9737 N   0  0  0  0  0  0  0  0  0  0  0  0
  -31.4740  -20.9100  -10.8669 C   0  0  0  0  0  0  0  0  0  0  0  0
  -32.3076  -20.3226   -9.9567 N   0  0  0  0  0  0  0  0  0  0  0  0
  -33.6410  -20.3852  -10.1816 C   0  0  0  0  0  0  0  0  0  0  0  0
  -34.1699  -20.9999  -11.2643 C   0  0  0  0  0  0  0  0  0  0  0  0
  -35.5125  -20.9152  -11.2487 N   0  0  0  0  0  0  0  0  0  0  0  0
  -35.7560  -20.2170  -10.1040 C   0  0  0  0  0  0  0  0  0  0  0  0
  -34.6259  -19.8647   -9.4361 N   0  0  0  0  0  0  0  0  0  0  0  0
  -34.8731  -22.2957  -13.5432 H   0  0  0  0  0  0  0  0  0  0  0  0
  -33.1913  -22.7110  -14.0351 H   0  0  0  0  0  0  0  0  0  0  0  0
  -31.2569  -17.9926   -7.4639 C   0  0  0  0  0  0  0  0  0  0  0  0
  -30.4758  -17.9168   -6.2942 O   0  0  0  0  0  0  0  0  0  0  0  0
  -28.9494  -18.6084   -6.6140 P   0  0  0  0  0  0  0  0  0  0  0  0
  -29.1030  -20.0929   -6.8581 O   0  0  0  0  0  0  0  0  0  0  0  0
  -27.9551  -18.3937   -5.2614 O   0  0  0  0  0  0  0  0  0  0  0  0
  -28.2450  -17.8980   -7.9937 O   0  0  0  0  0  0  0  0  0  0  0  0
  -26.5592  -17.8610   -7.7548 P   0  0  0  0  0  0  0  0  0  0  0  0
  -26.1243  -19.1336   -7.0616 O   0  0  0  0  0  0  0  0  0  0  0  0
  -25.8222  -17.7860   -9.2764 O   0  0  0  0  0  0  0  0  0  0  0  0
  -26.1270  -16.5000   -6.8225 O   0  0  0  0  0  0  0  0  0  0  0  0
  -24.6046  -16.7884   -6.1078 P   0  0  0  0  0  0  0  0  0  0  0  0
  -24.8245  -16.9098   -4.4350 O   0  0  0  0  0  0  0  0  0  0  0  0
  -23.9024  -18.2292   -6.6572 O   0  0  0  0  0  0  0  0  0  0  0  0
  -23.5323  -15.4700   -6.4253 S   0  0  0  0  0  0  0  0  0  0  0  0
 10 11  1  0  0  0
 10 20  1  0  0  0
 10 21  1  0  0  0
 11 12  2  0  0  0
 11 16  1  0  0  0
 12 13  1  0  0  0
 13 14  2  0  0  0
 14 15  1  0  0  0
 15 16  2  0  0  0
 15 19  1  0  0  0
 16 17  1  0  0  0
 17 18  2  0  0  0
 18 19  1  0  0  0
 19  1  1  0  0  0
  1  2  1  0  0  0
  1  6  1  0  0  0
  2  3  1  0  0  0
  3 22  1  0  0  0
  3  4  1  0  0  0
 22 23  1  0  0  0
 23 24  1  0  0  0
 24 25  2  0  0  0
 24 26  1  0  0  0
 24 27  1  0  0  0
 27 28  1  0  0  0
 28 29  2  0  0  0
 28 30  1  0  0  0
 28 31  1  0  0  0
 31 32  1  0  0  0
 32 33  1  0  0  0
 32 34  1  0  0  0
 32 35  2  0  0  0
  4  5  1  0  0  0
  4  6  1  0  0  0
  5  8  1  0  0  0
  6  7  1  0  0  0
  7  9  1  0  0  0
M  CHG 1  26  -1
M  CHG 1  30  -1
M  CHG 1  33  -1
M  CHG 1  34  -1
M  END
> <COMPND>
    ../0-casp/DBelp1.pdb 

> <AUTHOR>
    GENERATED BY OPEN BABEL 3.1.0

> <MASTER>
        0    0    0    0    0    0    0    0   43    0   43    0

> <minimizedAffinity>
-10.86272

> <CNNscore>
0.6390604377

> <CNNaffinity>
5.5604314804

> <CNN_VS>
3.5534517765

> <CNNaffinity_variance>
0.2067603320

$$$$



 35 37  0  0  0  0  0  0  0  0999 V2000
   22.2746   -7.9279  -10.6584 C   0  0  0  0  0  0  0  0  0  0  0  0
   21.6162   -8.6509   -9.6388 O   0  0  0  0  0  0  0  0  0  0  0  0
   22.5877   -9.4161   -8.9627 C   0  0  0  0  0  0  0  0  0  0  0  0
   23.9414   -8.7472   -9.1673 C   0  0  0  0  0  0  0  0  0  0  0  0
   24.9895   -9.6811   -9.1356 O   0  0  0  0  0  0  0  0  0  0  0  0
   23.7895   -8.1186  -10.5326 C   0  0  0  0  0  0  0  0  0  0  0  0
   24.2404   -8.9862  -11.5444 O   0  0  0  0  0  0  0  0  0  0  0  0
   25.1600   -9.8842   -8.1790 H   0  0  0  0  0  0  0  0  0  0  0  0
   25.2184   -8.8398  -11.6327 H   0  0  0  0  0  0  0  0  0  0  0  0
   19.7995   -2.3637  -10.4287 N   0  0  0  0  0  0  0  0  0  0  0  0
   19.7521   -3.7574  -10.7348 C   0  0  0  0  0  0  0  0  0  0  0  0
   18.6224   -4.3134  -11.2660 N   0  0  0  0  0  0  0  0  0  0  0  0
   18.5610   -5.6490  -11.5736 C   0  0  0  0  0  0  0  0  0  0  0  0
   19.6401   -6.4600  -11.3584 N   0  0  0  0  0  0  0  0  0  0  0  0
   20.7584   -5.9060  -10.8343 C   0  0  0  0  0  0  0  0  0  0  0  0
   20.8441   -4.5925  -10.5221 C   0  0  0  0  0  0  0  0  0  0  0  0
   22.0593   -4.3023  -10.0231 N   0  0  0  0  0  0  0  0  0  0  0  0
   22.6934   -5.5081  -10.0566 C   0  0  0  0  0  0  0  0  0  0  0  0
   21.9251   -6.5079  -10.5638 N   0  0  0  0  0  0  0  0  0  0  0  0
   20.6651   -1.9284  -10.0352 H   0  0  0  0  0  0  0  0  0  0  0  0
   18.9589   -1.7633  -10.5870 H   0  0  0  0  0  0  0  0  0  0  0  0
   22.2216   -9.5324   -7.4802 C   0  0  0  0  0  0  0  0  0  0  0  0
   20.8805   -9.1393   -7.3041 O   0  0  0  0  0  0  0  0  0  0  0  0
   20.8445   -7.7699   -6.2872 P   0  0  0  0  0  0  0  0  0  0  0  0
   20.9403   -6.5123   -7.1215 O   0  0  0  0  0  0  0  0  0  0  0  0
   22.1810   -7.8210   -5.2500 O   0  0  0  0  0  0  0  0  0  0  0  0
   19.3944   -7.7232   -5.3932 O   0  0  0  0  0  0  0  0  0  0  0  0
   19.1503   -9.2679   -4.7192 P   0  0  0  0  0  0  0  0  0  0  0  0
   18.2297   -9.1523   -3.5241 O   0  0  0  0  0  0  0  0  0  0  0  0
   18.4063  -10.2335   -5.8932 O   0  0  0  0  0  0  0  0  0  0  0  0
   20.6430   -9.9495   -4.2545 O   0  0  0  0  0  0  0  0  0  0  0  0
   20.3458  -11.2108   -3.1444 P   0  0  0  0  0  0  0  0  0  0  0  0
   20.1843  -10.5282   -1.6052 O   0  0  0  0  0  0  0  0  0  0  0  0
   18.9217  -12.0563   -3.5026 O   0  0  0  0  0  0  0  0  0  0  0  0
   21.6766  -12.3139   -3.1178 S   0  0  0  0  0  0  0  0  0  0  0  0
 10 11  1  0  0  0
 10 20  1  0  0  0
 10 21  1  0  0  0
 11 12  2  0  0  0
 11 16  1  0  0  0
 12 13  1  0  0  0
 13 14  2  0  0  0
 14 15  1  0  0  0
 15 16  2  0  0  0
 15 19  1  0  0  0
 16 17  1  0  0  0
 17 18  2  0  0  0
 18 19  1  0  0  0
 19  1  1  0  0  0
  1  2  1  0  0  0
  1  6  1  0  0  0
  2  3  1  0  0  0
  3 22  1  0  0  0
  3  4  1  0  0  0
 22 23  1  0  0  0
 23 24  1  0  0  0
 24 25  2  0  0  0
 24 26  1  0  0  0
 24 27  1  0  0  0
 27 28  1  0  0  0
 28 29  2  0  0  0
 28 30  1  0  0  0
 28 31  1  0  0  0
 31 32  1  0  0  0
 32 33  1  0  0  0
 32 34  1  0  0  0
 32 35  2  0  0  0
  4  5  1  0  0  0
  4  6  1  0  0  0
  5  8  1  0  0  0
  6  7  1  0  0  0
  7  9  1  0  0  0
M  CHG 1  26  -1
M  CHG 1  30  -1
M  CHG 1  33  -1
M  CHG 1  34  -1
M  END
> <COMPND>
    ../0-casp/DBelp1.pdb 

> <AUTHOR>
    GENERATED BY OPEN BABEL 3.1.0

> <MASTER>
        0    0    0    0    0    0    0    0   43    0   43    0

> <minimizedAffinity>
-7.50141

> <CNNscore>
0.3978621066

> <CNNaffinity>
4.5362749100

> <CNN_VS>
1.8048118353

> <CNNaffinity_variance>
0.4267434478

$$$$



 35 37  0  0  0  0  0  0  0  0999 V2000
    4.8693   26.0239    8.5647 C   0  0  0  0  0  0  0  0  0  0  0  0
    6.2220   25.6761    8.7765 O   0  0  0  0  0  0  0  0  0  0  0  0
    6.9835   26.2843    7.7585 C   0  0  0  0  0  0  0  0  0  0  0  0
    6.2032   27.4857    7.2393 C   0  0  0  0  0  0  0  0  0  0  0  0
    6.4947   27.7481    5.8911 O   0  0  0  0  0  0  0  0  0  0  0  0
    4.7697   27.0483    7.4299 C   0  0  0  0  0  0  0  0  0  0  0  0
    4.2716   26.4219    6.2726 O   0  0  0  0  0  0  0  0  0  0  0  0
    7.3659   28.2237    5.8763 H   0  0  0  0  0  0  0  0  0  0  0  0
    3.9285   27.1424    5.6818 H   0  0  0  0  0  0  0  0  0  0  0  0
    2.8514   27.3612   14.1575 N   0  0  0  0  0  0  0  0  0  0  0  0
    3.3602   26.4536   13.1799 C   0  0  0  0  0  0  0  0  0  0  0  0
    3.5725   25.1410   13.4954 N   0  0  0  0  0  0  0  0  0  0  0  0
    4.0537   24.2527   12.5672 C   0  0  0  0  0  0  0  0  0  0  0  0
    4.3292   24.6632   11.2928 N   0  0  0  0  0  0  0  0  0  0  0  0
    4.1156   25.9634   10.9827 C   0  0  0  0  0  0  0  0  0  0  0  0
    3.6425   26.8589   11.8795 C   0  0  0  0  0  0  0  0  0  0  0  0
    3.5196   28.0743   11.3160 N   0  0  0  0  0  0  0  0  0  0  0  0
    3.9404   27.8568   10.0382 C   0  0  0  0  0  0  0  0  0  0  0  0
    4.2979   26.5674    9.8000 N   0  0  0  0  0  0  0  0  0  0  0  0
    2.6730   28.3638   13.9196 H   0  0  0  0  0  0  0  0  0  0  0  0
    2.6608   27.0310   15.1305 H   0  0  0  0  0  0  0  0  0  0  0  0
    8.3585   26.6827    8.3025 C   0  0  0  0  0  0  0  0  0  0  0  0
    8.4133   28.0838    8.4363 O   0  0  0  0  0  0  0  0  0  0  0  0
    8.9241   28.4590   10.0202 P   0  0  0  0  0  0  0  0  0  0  0  0
    8.0874   27.6936   11.0208 O   0  0  0  0  0  0  0  0  0  0  0  0
    8.6953   30.1135   10.2934 O   0  0  0  0  0  0  0  0  0  0  0  0
   10.5604   28.0366   10.2399 O   0  0  0  0  0  0  0  0  0  0  0  0
   10.6342   26.8763   11.4843 P   0  0  0  0  0  0  0  0  0  0  0  0
    9.7992   27.3454   12.6556 O   0  0  0  0  0  0  0  0  0  0  0  0
    9.9798   25.4343   10.8871 O   0  0  0  0  0  0  0  0  0  0  0  0
   12.2516   26.6342   11.9676 O   0  0  0  0  0  0  0  0  0  0  0  0
   12.9881   25.5414   10.8837 P   0  0  0  0  0  0  0  0  0  0  0  0
   12.5596   23.9723   11.3479 O   0  0  0  0  0  0  0  0  0  0  0  0
   12.4760   25.7813    9.2864 O   0  0  0  0  0  0  0  0  0  0  0  0
   14.7091   25.6853   10.9620 S   0  0  0  0  0  0  0  0  0  0  0  0
 10 11  1  0  0  0
 10 20  1  0  0  0
 10 21  1  0  0  0
 11 12  2  0  0  0
 11 16  1  0  0  0
 12 13  1  0  0  0
 13 14  2  0  0  0
 14 15  1  0  0  0
 15 16  2  0  0  0
 15 19  1  0  0  0
 16 17  1  0  0  0
 17 18  2  0  0  0
 18 19  1  0  0  0
 19  1  1  0  0  0
  1  2  1  0  0  0
  1  6  1  0  0  0
  2  3  1  0  0  0
  3 22  1  0  0  0
  3  4  1  0  0  0
 22 23  1  0  0  0
 23 24  1  0  0  0
 24 25  2  0  0  0
 24 26  1  0  0  0
 24 27  1  0  0  0
 27 28  1  0  0  0
 28 29  2  0  0  0
 28 30  1  0  0  0
 28 31  1  0  0  0
 31 32  1  0  0  0
 32 33  1  0  0  0
 32 34  1  0  0  0
 32 35  2  0  0  0
  4  5  1  0  0  0
  4  6  1  0  0  0
  5  8  1  0  0  0
  6  7  1  0  0  0
  7  9  1  0  0  0
M  CHG 1  26  -1
M  CHG 1  30  -1
M  CHG 1  33  -1
M  CHG 1  34  -1
M  END
> <COMPND>
    ../0-casp/DBelp1.pdb 

> <AUTHOR>
    GENERATED BY OPEN BABEL 3.1.0

> <MASTER>
        0    0    0    0    0    0    0    0   43    0   43    0

> <minimizedAffinity>
-8.81851

> <CNNscore>
0.3358393312

> <CNNaffinity>
4.7126107216

> <CNN_VS>
1.5826799870

> <CNNaffinity_variance>
0.4602677822

$$$$



 35 37  0  0  0  0  0  0  0  0999 V2000
   21.9863   -6.9663   -6.6669 C   0  0  0  0  0  0  0  0  0  0  0  0
   22.4430   -8.0797   -5.9270 O   0  0  0  0  0  0  0  0  0  0  0  0
   21.3203   -8.6798   -5.3223 C   0  0  0  0  0  0  0  0  0  0  0  0
   20.0885   -8.3043   -6.1368 C   0  0  0  0  0  0  0  0  0  0  0  0
   18.9339   -8.2634   -5.3388 O   0  0  0  0  0  0  0  0  0  0  0  0
   20.4545   -6.9378   -6.6669 C   0  0  0  0  0  0  0  0  0  0  0  0
   20.0026   -5.9210   -5.8057 O   0  0  0  0  0  0  0  0  0  0  0  0
   18.6440   -9.2040   -5.2104 H   0  0  0  0  0  0  0  0  0  0  0  0
   19.0644   -5.7230   -6.0635 H   0  0  0  0  0  0  0  0  0  0  0  0
   23.8017   -6.2243  -12.4369 N   0  0  0  0  0  0  0  0  0  0  0  0
   23.0738   -5.8180  -11.2779 C   0  0  0  0  0  0  0  0  0  0  0  0
   22.3331   -4.6697  -11.2906 N   0  0  0  0  0  0  0  0  0  0  0  0
   21.6211   -4.2674  -10.1889 C   0  0  0  0  0  0  0  0  0  0  0  0
   21.6326   -5.0158   -9.0451 N   0  0  0  0  0  0  0  0  0  0  0  0
   22.3654   -6.1539   -9.0364 C   0  0  0  0  0  0  0  0  0  0  0  0
   23.0761   -6.5719  -10.1088 C   0  0  0  0  0  0  0  0  0  0  0  0
   23.7082   -7.7280   -9.8371 N   0  0  0  0  0  0  0  0  0  0  0  0
   23.3358   -7.9786   -8.5504 C   0  0  0  0  0  0  0  0  0  0  0  0
   22.4995   -7.0379   -8.0377 N   0  0  0  0  0  0  0  0  0  0  0  0
   24.3594   -7.1089  -12.4394 H   0  0  0  0  0  0  0  0  0  0  0  0
   23.7918   -5.6307  -13.2970 H   0  0  0  0  0  0  0  0  0  0  0  0
   21.5180  -10.1965   -5.2441 C   0  0  0  0  0  0  0  0  0  0  0  0
   20.2826  -10.8084   -4.9550 O   0  0  0  0  0  0  0  0  0  0  0  0
   20.1747  -11.0453   -3.2690 P   0  0  0  0  0  0  0  0  0  0  0  0
   19.9663   -9.7156   -2.5793 O   0  0  0  0  0  0  0  0  0  0  0  0
   21.6294  -11.7083   -2.7135 O   0  0  0  0  0  0  0  0  0  0  0  0
   18.8663  -12.0688   -2.8885 O   0  0  0  0  0  0  0  0  0  0  0  0
   17.4869  -11.0920   -2.6802 P   0  0  0  0  0  0  0  0  0  0  0  0
   16.2799  -11.9742   -2.4477 O   0  0  0  0  0  0  0  0  0  0  0  0
   17.7354  -10.1304   -1.3100 O   0  0  0  0  0  0  0  0  0  0  0  0
   17.2484  -10.1103   -4.0542 O   0  0  0  0  0  0  0  0  0  0  0  0
   16.6735  -11.0865   -5.3301 P   0  0  0  0  0  0  0  0  0  0  0  0
   17.4696  -10.6201   -6.7478 O   0  0  0  0  0  0  0  0  0  0  0  0
   16.9802  -12.7318   -5.0654 O   0  0  0  0  0  0  0  0  0  0  0  0
   14.9755  -10.8479   -5.5512 S   0  0  0  0  0  0  0  0  0  0  0  0
 10 11  1  0  0  0
 10 20  1  0  0  0
 10 21  1  0  0  0
 11 12  2  0  0  0
 11 16  1  0  0  0
 12 13  1  0  0  0
 13 14  2  0  0  0
 14 15  1  0  0  0
 15 16  2  0  0  0
 15 19  1  0  0  0
 16 17  1  0  0  0
 17 18  2  0  0  0
 18 19  1  0  0  0
 19  1  1  0  0  0
  1  2  1  0  0  0
  1  6  1  0  0  0
  2  3  1  0  0  0
  3 22  1  0  0  0
  3  4  1  0  0  0
 22 23  1  0  0  0
 23 24  1  0  0  0
 24 25  2  0  0  0
 24 26  1  0  0  0
 24 27  1  0  0  0
 27 28  1  0  0  0
 28 29  2  0  0  0
 28 30  1  0  0  0
 28 31  1  0  0  0
 31 32  1  0  0  0
 32 33  1  0  0  0
 32 34  1  0  0  0
 32 35  2  0  0  0
  4  5  1  0  0  0
  4  6  1  0  0  0
  5  8  1  0  0  0
  6  7  1  0  0  0
  7  9  1  0  0  0
M  CHG 1  26  -1
M  CHG 1  30  -1
M  CHG 1  33  -1
M  CHG 1  34  -1
M  END
> <COMPND>
    ../0-casp/DBelp1.pdb 

> <AUTHOR>
    GENERATED BY OPEN BABEL 3.1.0

> <MASTER>
        0    0    0    0    0    0    0    0   43    0   43    0

> <minimizedAffinity>
-7.68899

> <CNNscore>
0.3040215969

> <CNNaffinity>
4.4879541397

> <CNN_VS>
1.3644349575

> <CNNaffinity_variance>
0.3585120142

$$$$



 35 37  0  0  0  0  0  0  0  0999 V2000
   32.8187   14.8039   15.8171 C   0  0  0  0  0  0  0  0  0  0  0  0
   32.6445   13.8335   16.8288 O   0  0  0  0  0  0  0  0  0  0  0  0
   32.4193   12.5940   16.1970 C   0  0  0  0  0  0  0  0  0  0  0  0
   33.0226   12.6602   14.7994 C   0  0  0  0  0  0  0  0  0  0  0  0
   32.3367   11.8279   13.9002 O   0  0  0  0  0  0  0  0  0  0  0  0
   32.8641   14.1206   14.4466 C   0  0  0  0  0  0  0  0  0  0  0  0
   31.6544   14.3503   13.7657 O   0  0  0  0  0  0  0  0  0  0  0  0
   32.6581   10.9036   14.0672 H   0  0  0  0  0  0  0  0  0  0  0  0
   31.8305   14.1808   12.8034 H   0  0  0  0  0  0  0  0  0  0  0  0
   37.3014   18.8019   16.8472 N   0  0  0  0  0  0  0  0  0  0  0  0
   35.9621   18.4702   16.4803 C   0  0  0  0  0  0  0  0  0  0  0  0
   35.0676   19.4515   16.1571 N   0  0  0  0  0  0  0  0  0  0  0  0
   33.7789   19.1513   15.7947 C   0  0  0  0  0  0  0  0  0  0  0  0
   33.3583   17.8517   15.7433 N   0  0  0  0  0  0  0  0  0  0  0  0
   34.2472   16.8819   16.0617 C   0  0  0  0  0  0  0  0  0  0  0  0
   35.5227   17.1516   16.4225 C   0  0  0  0  0  0  0  0  0  0  0  0
   36.1925   16.0141   16.6824 N   0  0  0  0  0  0  0  0  0  0  0  0
   35.2526   15.0538   16.4554 C   0  0  0  0  0  0  0  0  0  0  0  0
   34.0534   15.5555   16.0584 N   0  0  0  0  0  0  0  0  0  0  0  0
   37.9954   18.0558   17.0822 H   0  0  0  0  0  0  0  0  0  0  0  0
   37.5994   19.8025   16.8947 H   0  0  0  0  0  0  0  0  0  0  0  0
   33.0270   11.4639   17.0331 C   0  0  0  0  0  0  0  0  0  0  0  0
   33.0148   10.2743   16.2789 O   0  0  0  0  0  0  0  0  0  0  0  0
   34.5389    9.5219   16.4258 P   0  0  0  0  0  0  0  0  0  0  0  0
   34.8224    9.2234   17.8810 O   0  0  0  0  0  0  0  0  0  0  0  0
   35.7311   10.5816   15.8601 O   0  0  0  0  0  0  0  0  0  0  0  0
   34.5740    8.0596   15.5514 O   0  0  0  0  0  0  0  0  0  0  0  0
   33.9015    8.3572   14.0154 P   0  0  0  0  0  0  0  0  0  0  0  0
   32.4114    8.5783   14.1561 O   0  0  0  0  0  0  0  0  0  0  0  0
   34.6099    9.7676   13.4045 O   0  0  0  0  0  0  0  0  0  0  0  0
   34.2106    7.0431   12.9733 O   0  0  0  0  0  0  0  0  0  0  0  0
   35.7534    6.4101   13.3348 P   0  0  0  0  0  0  0  0  0  0  0  0
   36.8394    7.7026   13.4411 O   0  0  0  0  0  0  0  0  0  0  0  0
   35.7736    5.5767   14.8100 O   0  0  0  0  0  0  0  0  0  0  0  0
   36.2807    5.3538   12.0719 S   0  0  0  0  0  0  0  0  0  0  0  0
 10 11  1  0  0  0
 10 20  1  0  0  0
 10 21  1  0  0  0
 11 12  2  0  0  0
 11 16  1  0  0  0
 12 13  1  0  0  0
 13 14  2  0  0  0
 14 15  1  0  0  0
 15 16  2  0  0  0
 15 19  1  0  0  0
 16 17  1  0  0  0
 17 18  2  0  0  0
 18 19  1  0  0  0
 19  1  1  0  0  0
  1  2  1  0  0  0
  1  6  1  0  0  0
  2  3  1  0  0  0
  3 22  1  0  0  0
  3  4  1  0  0  0
 22 23  1  0  0  0
 23 24  1  0  0  0
 24 25  2  0  0  0
 24 26  1  0  0  0
 24 27  1  0  0  0
 27 28  1  0  0  0
 28 29  2  0  0  0
 28 30  1  0  0  0
 28 31  1  0  0  0
 31 32  1  0  0  0
 32 33  1  0  0  0
 32 34  1  0  0  0
 32 35  2  0  0  0
  4  5  1  0  0  0
  4  6  1  0  0  0
  5  8  1  0  0  0
  6  7  1  0  0  0
  7  9  1  0  0  0
M  CHG 1  26  -1
M  CHG 1  30  -1
M  CHG 1  33  -1
M  CHG 1  34  -1
M  END
> <COMPND>
    ../0-casp/DBelp1.pdb 

> <AUTHOR>
    GENERATED BY OPEN BABEL 3.1.0

> <MASTER>
        0    0    0    0    0    0    0    0   43    0   43    0

> <minimizedAffinity>
-9.14842

> <CNNscore>
0.2400474697

> <CNNaffinity>
4.8678803444

> <CNN_VS>
1.1685223579

> <CNNaffinity_variance>
0.2956815660

$$$$



 35 37  0  0  0  0  0  0  0  0999 V2000
  -34.5723   14.5008    8.8338 C   0  0  0  0  0  0  0  0  0  0  0  0
  -34.4011   13.8445   10.0730 O   0  0  0  0  0  0  0  0  0  0  0  0
  -33.0980   14.1276   10.5293 C   0  0  0  0  0  0  0  0  0  0  0  0
  -32.6410   15.4261    9.8761 C   0  0  0  0  0  0  0  0  0  0  0  0
  -31.2464   15.4615    9.7163 O   0  0  0  0  0  0  0  0  0  0  0  0
  -33.3587   15.3908    8.5472 C   0  0  0  0  0  0  0  0  0  0  0  0
  -32.5605   14.7930    7.5546 O   0  0  0  0  0  0  0  0  0  0  0  0
  -30.8649   15.6953   10.6024 H   0  0  0  0  0  0  0  0  0  0  0  0
  -31.9869   15.5104    7.1775 H   0  0  0  0  0  0  0  0  0  0  0  0
  -40.0574   17.0884    8.2356 N   0  0  0  0  0  0  0  0  0  0  0  0
  -39.0341   16.1831    7.8214 C   0  0  0  0  0  0  0  0  0  0  0  0
  -39.2109   15.3918    6.7213 N   0  0  0  0  0  0  0  0  0  0  0  0
  -38.2359   14.5216    6.3040 C   0  0  0  0  0  0  0  0  0  0  0  0
  -37.0527   14.4293    6.9823 N   0  0  0  0  0  0  0  0  0  0  0  0
  -36.8796   15.2159    8.0701 C   0  0  0  0  0  0  0  0  0  0  0  0
  -37.8253   16.0814    8.5022 C   0  0  0  0  0  0  0  0  0  0  0  0
  -37.4007   16.7403    9.5957 N   0  0  0  0  0  0  0  0  0  0  0  0
  -36.1540   16.2257    9.7910 C   0  0  0  0  0  0  0  0  0  0  0  0
  -35.8008   15.2993    8.8614 N   0  0  0  0  0  0  0  0  0  0  0  0
  -39.9238   17.7072    9.0680 H   0  0  0  0  0  0  0  0  0  0  0  0
  -40.9607   17.1336    7.7120 H   0  0  0  0  0  0  0  0  0  0  0  0
  -33.0886   14.2181   12.0581 C   0  0  0  0  0  0  0  0  0  0  0  0
  -32.1268   15.1663   12.4581 O   0  0  0  0  0  0  0  0  0  0  0  0
  -31.3744   14.6091   13.8842 P   0  0  0  0  0  0  0  0  0  0  0  0
  -31.0683   13.1337   13.7565 O   0  0  0  0  0  0  0  0  0  0  0  0
  -32.4377   14.8193   15.1841 O   0  0  0  0  0  0  0  0  0  0  0  0
  -29.9168   15.4473   14.1615 O   0  0  0  0  0  0  0  0  0  0  0  0
  -29.2598   15.8613   12.6459 P   0  0  0  0  0  0  0  0  0  0  0  0
  -29.3356   14.6639   11.7240 O   0  0  0  0  0  0  0  0  0  0  0  0
  -30.1987   17.1118   11.9987 O   0  0  0  0  0  0  0  0  0  0  0  0
  -27.6421   16.3706   12.8252 O   0  0  0  0  0  0  0  0  0  0  0  0
  -27.6348   17.9475   13.4770 P   0  0  0  0  0  0  0  0  0  0  0  0
  -27.7998   19.0442   12.1998 O   0  0  0  0  0  0  0  0  0  0  0  0
  -28.9130   18.1980   14.5607 O   0  0  0  0  0  0  0  0  0  0  0  0
  -26.1346   18.2600   14.2773 S   0  0  0  0  0  0  0  0  0  0  0  0
 10 11  1  0  0  0
 10 20  1  0  0  0
 10 21  1  0  0  0
 11 12  2  0  0  0
 11 16  1  0  0  0
 12 13  1  0  0  0
 13 14  2  0  0  0
 14 15  1  0  0  0
 15 16  2  0  0  0
 15 19  1  0  0  0
 16 17  1  0  0  0
 17 18  2  0  0  0
 18 19  1  0  0  0
 19  1  1  0  0  0
  1  2  1  0  0  0
  1  6  1  0  0  0
  2  3  1  0  0  0
  3 22  1  0  0  0
  3  4  1  0  0  0
 22 23  1  0  0  0
 23 24  1  0  0  0
 24 25  2  0  0  0
 24 26  1  0  0  0
 24 27  1  0  0  0
 27 28  1  0  0  0
 28 29  2  0  0  0
 28 30  1  0  0  0
 28 31  1  0  0  0
 31 32  1  0  0  0
 32 33  1  0  0  0
 32 34  1  0  0  0
 32 35  2  0  0  0
  4  5  1  0  0  0
  4  6  1  0  0  0
  5  8  1  0  0  0
  6  7  1  0  0  0
  7  9  1  0  0  0
M  CHG 1  26  -1
M  CHG 1  30  -1
M  CHG 1  33  -1
M  CHG 1  34  -1
M  END
> <COMPND>
    ../0-casp/DBelp1.pdb 

> <AUTHOR>
    GENERATED BY OPEN BABEL 3.1.0

> <MASTER>
        0    0    0    0    0    0    0    0   43    0   43    0

> <minimizedAffinity>
-9.17498

> <CNNscore>
0.2283845097

> <CNNaffinity>
4.9262681007

> <CNN_VS>
1.1250833273

> <CNNaffinity_variance>
0.2046270072

$$$$



 35 37  0  0  0  0  0  0  0  0999 V2000
  -32.8581  -19.5509   -9.3402 C   0  0  0  0  0  0  0  0  0  0  0  0
  -32.5129  -20.1737   -8.1201 O   0  0  0  0  0  0  0  0  0  0  0  0
  -32.5005  -19.1790   -7.1218 C   0  0  0  0  0  0  0  0  0  0  0  0
  -33.3974  -18.0367   -7.5827 C   0  0  0  0  0  0  0  0  0  0  0  0
  -32.9753  -16.8042   -7.0587 O   0  0  0  0  0  0  0  0  0  0  0  0
  -33.2455  -18.0909   -9.0848 C   0  0  0  0  0  0  0  0  0  0  0  0
  -32.2088  -17.2455   -9.5212 O   0  0  0  0  0  0  0  0  0  0  0  0
  -33.2992  -16.7684   -6.1210 H   0  0  0  0  0  0  0  0  0  0  0  0
  -32.6047  -16.3423   -9.6365 H   0  0  0  0  0  0  0  0  0  0  0  0
  -36.6880  -23.0276  -12.5626 N   0  0  0  0  0  0  0  0  0  0  0  0
  -35.4113  -22.4323  -12.3303 C   0  0  0  0  0  0  0  0  0  0  0  0
  -34.3739  -22.6566  -13.1912 N   0  0  0  0  0  0  0  0  0  0  0  0
  -33.1423  -22.0871  -12.9884 C   0  0  0  0  0  0  0  0  0  0  0  0
  -32.9247  -21.2708  -11.9137 N   0  0  0  0  0  0  0  0  0  0  0  0
  -33.9549  -21.0487  -11.0641 C   0  0  0  0  0  0  0  0  0  0  0  0
  -35.1780  -21.5985  -11.2416 C   0  0  0  0  0  0  0  0  0  0  0  0
  -36.0165  -21.2155  -10.2616 N   0  0  0  0  0  0  0  0  0  0  0  0
  -35.2320  -20.4081   -9.4938 C   0  0  0  0  0  0  0  0  0  0  0  0
  -33.9660  -20.2745   -9.9700 N   0  0  0  0  0  0  0  0  0  0  0  0
  -37.4905  -22.8493  -11.9162 H   0  0  0  0  0  0  0  0  0  0  0  0
  -36.8302  -23.6603  -13.3821 H   0  0  0  0  0  0  0  0  0  0  0  0
  -32.9639  -19.7723   -5.7881 C   0  0  0  0  0  0  0  0  0  0  0  0
  -33.6595  -18.7862   -5.0615 O   0  0  0  0  0  0  0  0  0  0  0  0
  -32.7783  -18.4325   -3.6441 P   0  0  0  0  0  0  0  0  0  0  0  0
  -31.3099  -18.7124   -3.8732 O   0  0  0  0  0  0  0  0  0  0  0  0
  -33.3210  -19.4373   -2.3951 O   0  0  0  0  0  0  0  0  0  0  0  0
  -32.9614  -16.7931   -3.2160 O   0  0  0  0  0  0  0  0  0  0  0  0
  -34.3971  -16.6504   -2.3113 P   0  0  0  0  0  0  0  0  0  0  0  0
  -34.1743  -17.2185   -0.9267 O   0  0  0  0  0  0  0  0  0  0  0  0
  -34.7623  -15.0034   -2.1759 O   0  0  0  0  0  0  0  0  0  0  0  0
  -35.6694  -17.4742   -3.0930 O   0  0  0  0  0  0  0  0  0  0  0  0
  -36.2987  -16.4691   -4.3200 P   0  0  0  0  0  0  0  0  0  0  0  0
  -37.3212  -15.3332   -3.5952 O   0  0  0  0  0  0  0  0  0  0  0  0
  -35.0806  -15.6338   -5.1504 O   0  0  0  0  0  0  0  0  0  0  0  0
  -37.2242  -17.4009   -5.4443 S   0  0  0  0  0  0  0  0  0  0  0  0
 10 11  1  0  0  0
 10 20  1  0  0  0
 10 21  1  0  0  0
 11 12  2  0  0  0
 11 16  1  0  0  0
 12 13  1  0  0  0
 13 14  2  0  0  0
 14 15  1  0  0  0
 15 16  2  0  0  0
 15 19  1  0  0  0
 16 17  1  0  0  0
 17 18  2  0  0  0
 18 19  1  0  0  0
 19  1  1  0  0  0
  1  2  1  0  0  0
  1  6  1  0  0  0
  2  3  1  0  0  0
  3 22  1  0  0  0
  3  4  1  0  0  0
 22 23  1  0  0  0
 23 24  1  0  0  0
 24 25  2  0  0  0
 24 26  1  0  0  0
 24 27  1  0  0  0
 27 28  1  0  0  0
 28 29  2  0  0  0
 28 30  1  0  0  0
 28 31  1  0  0  0
 31 32  1  0  0  0
 32 33  1  0  0  0
 32 34  1  0  0  0
 32 35  2  0  0  0
  4  5  1  0  0  0
  4  6  1  0  0  0
  5  8  1  0  0  0
  6  7  1  0  0  0
  7  9  1  0  0  0
M  CHG 1  26  -1
M  CHG 1  30  -1
M  CHG 1  33  -1
M  CHG 1  34  -1
M  END
> <COMPND>
    ../0-casp/DBelp1.pdb 

> <AUTHOR>
    GENERATED BY OPEN BABEL 3.1.0

> <MASTER>
        0    0    0    0    0    0    0    0   43    0   43    0

> <minimizedAffinity>
-8.94805

> <CNNscore>
0.2281935066

> <CNNaffinity>
4.8984479904

> <CNN_VS>
1.1177940369

> <CNNaffinity_variance>
0.4644353390

$$$$



 35 37  0  0  0  0  0  0  0  0999 V2000
   22.0445   -5.0006   -8.7868 C   0  0  0  0  0  0  0  0  0  0  0  0
   22.8797   -6.1245   -8.9735 O   0  0  0  0  0  0  0  0  0  0  0  0
   23.0736   -6.7261   -7.7138 C   0  0  0  0  0  0  0  0  0  0  0  0
   21.9036   -6.3353   -6.8192 C   0  0  0  0  0  0  0  0  0  0  0  0
   22.2774   -6.2979   -5.4662 O   0  0  0  0  0  0  0  0  0  0  0  0
   21.5405   -4.9646   -7.3405 C   0  0  0  0  0  0  0  0  0  0  0  0
   22.2175   -3.9556   -6.6310 O   0  0  0  0  0  0  0  0  0  0  0  0
   22.2915   -7.2386   -5.1494 H   0  0  0  0  0  0  0  0  0  0  0  0
   21.6676   -3.7501   -5.8302 H   0  0  0  0  0  0  0  0  0  0  0  0
   17.1379   -4.2390  -12.3201 N   0  0  0  0  0  0  0  0  0  0  0  0
   17.9770   -3.8722  -11.2248 C   0  0  0  0  0  0  0  0  0  0  0  0
   17.6653   -2.7966  -10.4415 N   0  0  0  0  0  0  0  0  0  0  0  0
   18.4555   -2.4338   -9.3802 C   0  0  0  0  0  0  0  0  0  0  0  0
   19.5797   -3.1496   -9.0766 N   0  0  0  0  0  0  0  0  0  0  0  0
   19.8845   -4.2157   -9.8529 C   0  0  0  0  0  0  0  0  0  0  0  0
   19.1224   -4.5936  -10.9047 C   0  0  0  0  0  0  0  0  0  0  0  0
   19.6442   -5.6805  -11.5019 N   0  0  0  0  0  0  0  0  0  0  0  0
   20.7533   -5.9321  -10.7511 C   0  0  0  0  0  0  0  0  0  0  0  0
   20.9184   -5.0590   -9.7227 N   0  0  0  0  0  0  0  0  0  0  0  0
   17.3622   -5.0691  -12.9153 H   0  0  0  0  0  0  0  0  0  0  0  0
   16.2905   -3.6702  -12.5448 H   0  0  0  0  0  0  0  0  0  0  0  0
   23.1936   -8.2445   -7.8735 C   0  0  0  0  0  0  0  0  0  0  0  0
   23.1666   -8.8458   -6.6000 O   0  0  0  0  0  0  0  0  0  0  0  0
   22.1107  -10.1848   -6.6534 P   0  0  0  0  0  0  0  0  0  0  0  0
   22.2483  -10.9940   -5.3832 O   0  0  0  0  0  0  0  0  0  0  0  0
   22.5408  -11.1713   -7.9596 O   0  0  0  0  0  0  0  0  0  0  0  0
   20.4931   -9.6690   -6.7998 O   0  0  0  0  0  0  0  0  0  0  0  0
   19.8788   -9.4350   -5.2288 P   0  0  0  0  0  0  0  0  0  0  0  0
   20.9374   -8.7773   -4.3708 O   0  0  0  0  0  0  0  0  0  0  0  0
   18.5448   -8.4000   -5.3433 O   0  0  0  0  0  0  0  0  0  0  0  0
   19.4101  -10.9285   -4.5520 O   0  0  0  0  0  0  0  0  0  0  0  0
   19.0407  -10.6894   -2.9034 P   0  0  0  0  0  0  0  0  0  0  0  0
   20.4955  -10.6330   -2.0422 O   0  0  0  0  0  0  0  0  0  0  0  0
   18.2096   -9.2368   -2.6379 O   0  0  0  0  0  0  0  0  0  0  0  0
   18.0983  -12.0078   -2.3013 S   0  0  0  0  0  0  0  0  0  0  0  0
 10 11  1  0  0  0
 10 20  1  0  0  0
 10 21  1  0  0  0
 11 12  2  0  0  0
 11 16  1  0  0  0
 12 13  1  0  0  0
 13 14  2  0  0  0
 14 15  1  0  0  0
 15 16  2  0  0  0
 15 19  1  0  0  0
 16 17  1  0  0  0
 17 18  2  0  0  0
 18 19  1  0  0  0
 19  1  1  0  0  0
  1  2  1  0  0  0
  1  6  1  0  0  0
  2  3  1  0  0  0
  3 22  1  0  0  0
  3  4  1  0  0  0
 22 23  1  0  0  0
 23 24  1  0  0  0
 24 25  2  0  0  0
 24 26  1  0  0  0
 24 27  1  0  0  0
 27 28  1  0  0  0
 28 29  2  0  0  0
 28 30  1  0  0  0
 28 31  1  0  0  0
 31 32  1  0  0  0
 32 33  1  0  0  0
 32 34  1  0  0  0
 32 35  2  0  0  0
  4  5  1  0  0  0
  4  6  1  0  0  0
  5  8  1  0  0  0
  6  7  1  0  0  0
  7  9  1  0  0  0
M  CHG 1  26  -1
M  CHG 1  30  -1
M  CHG 1  33  -1
M  CHG 1  34  -1
M  END
> <COMPND>
    ../0-casp/DBelp1.pdb 

> <AUTHOR>
    GENERATED BY OPEN BABEL 3.1.0

> <MASTER>
        0    0    0    0    0    0    0    0   43    0   43    0

> <minimizedAffinity>
-7.77061

> <CNNscore>
0.2147399634

> <CNNaffinity>
4.4513268471

> <CNN_VS>
0.9558777809

> <CNNaffinity_variance>
0.2355967015

$$$$
