


 35 37  0  0  0  0  0  0  0  0999 V2000
  -33.1901  -18.4761   -9.3072 C   0  0  0  0  0  0  0  0  0  0  0  0
  -32.0145  -17.6922   -9.2760 O   0  0  0  0  0  0  0  0  0  0  0  0
  -31.6154  -17.5742   -7.9302 C   0  0  0  0  0  0  0  0  0  0  0  0
  -32.1963  -18.7543   -7.1605 C   0  0  0  0  0  0  0  0  0  0  0  0
  -32.4346  -18.4282   -5.8156 O   0  0  0  0  0  0  0  0  0  0  0  0
  -33.4806  -19.0287   -7.9083 C   0  0  0  0  0  0  0  0  0  0  0  0
  -34.5591  -18.3266   -7.3391 O   0  0  0  0  0  0  0  0  0  0  0  0
  -31.5578  -18.4721   -5.3532 H   0  0  0  0  0  0  0  0  0  0  0  0
  -34.9156  -18.8939   -6.6060 H   0  0  0  0  0  0  0  0  0  0  0  0
  -33.6179  -22.9772  -13.3924 N   0  0  0  0  0  0  0  0  0  0  0  0
  -34.1815  -22.0803  -12.4350 C   0  0  0  0  0  0  0  0  0  0  0  0
  -35.5208  -22.1049  -12.1658 N   0  0  0  0  0  0  0  0  0  0  0  0
  -36.0784  -21.2562  -11.2426 C   0  0  0  0  0  0  0  0  0  0  0  0
  -35.2994  -20.3634  -10.5624 N   0  0  0  0  0  0  0  0  0  0  0  0
  -33.9720  -20.3427  -10.8300 C   0  0  0  0  0  0  0  0  0  0  0  0
  -33.3985  -21.1688  -11.7353 C   0  0  0  0  0  0  0  0  0  0  0  0
  -32.0734  -20.9459  -11.8062 N   0  0  0  0  0  0  0  0  0  0  0  0
  -31.8872  -19.9490  -10.8956 C   0  0  0  0  0  0  0  0  0  0  0  0
  -33.0321  -19.5690  -10.2697 N   0  0  0  0  0  0  0  0  0  0  0  0
  -32.5919  -22.9738  -13.5939 H   0  0  0  0  0  0  0  0  0  0  0  0
  -34.2334  -23.6423  -13.9137 H   0  0  0  0  0  0  0  0  0  0  0  0
  -30.0872  -17.5264   -7.8404 C   0  0  0  0  0  0  0  0  0  0  0  0
  -29.6992  -17.6751   -6.4947 O   0  0  0  0  0  0  0  0  0  0  0  0
  -28.0388  -18.0650   -6.4486 P   0  0  0  0  0  0  0  0  0  0  0  0
  -27.7808  -19.2963   -7.2873 O   0  0  0  0  0  0  0  0  0  0  0  0
  -27.6009  -18.4121   -4.8509 O   0  0  0  0  0  0  0  0  0  0  0  0
  -27.1015  -16.7800   -7.0607 O   0  0  0  0  0  0  0  0  0  0  0  0
  -25.6697  -17.4418   -7.7005 P   0  0  0  0  0  0  0  0  0  0  0  0
  -25.2687  -18.6507   -6.8849 O   0  0  0  0  0  0  0  0  0  0  0  0
  -25.9912  -17.9331   -9.2885 O   0  0  0  0  0  0  0  0  0  0  0  0
  -24.4244  -16.2761   -7.6860 O   0  0  0  0  0  0  0  0  0  0  0  0
  -24.6479  -15.2550   -6.3374 P   0  0  0  0  0  0  0  0  0  0  0  0
  -25.8254  -14.1081   -6.7356 O   0  0  0  0  0  0  0  0  0  0  0  0
  -25.1767  -16.1057   -4.9710 O   0  0  0  0  0  0  0  0  0  0  0  0
  -23.1780  -14.4252   -5.9629 S   0  0  0  0  0  0  0  0  0  0  0  0
  1 19  1  0  0  0
  1  2  1  0  0  0
  1  6  1  0  0  0
  2  3  1  0  0  0
  3 22  1  0  0  0
  3  4  1  0  0  0
  4  5  1  0  0  0
  4  6  1  0  0  0
  5  8  1  0  0  0
  6  7  1  0  0  0
  7  9  1  0  0  0
 10 11  1  0  0  0
 10 20  1  0  0  0
 10 21  1  0  0  0
 11 12  2  0  0  0
 11 16  1  0  0  0
 12 13  1  0  0  0
 13 14  2  0  0  0
 14 15  1  0  0  0
 15 16  2  0  0  0
 15 19  1  0  0  0
 16 17  1  0  0  0
 17 18  2  0  0  0
 18 19  1  0  0  0
 22 23  1  0  0  0
 23 24  1  0  0  0
 24 25  2  0  0  0
 24 26  1  0  0  0
 24 27  1  0  0  0
 27 28  1  0  0  0
 28 29  2  0  0  0
 28 30  1  0  0  0
 28 31  1  0  0  0
 31 32  1  0  0  0
 32 33  1  0  0  0
 32 34  1  0  0  0
 32 35  2  0  0  0
M  CHG 1  26  -1
M  CHG 1  30  -1
M  CHG 1  33  -1
M  CHG 1  34  -1
M  END
> <COMPND>
../0-casp/DBelp1.pdb

> <AUTHOR>
GENERATED BY OPEN BABEL 3.1.0

> <MASTER>
        0    0    0    0    0    0    0    0   35    0   35    0

> <minimizedAffinity>
-12.71540

> <CNNscore>
0.8433826566

> <CNNaffinity>
5.7487363815

> <CNN_VS>
4.8483843803

> <CNNaffinity_variance>
0.1158135682

$$$$



 35 37  0  0  0  0  0  0  0  0999 V2000
  -33.5285  -18.5776   -9.3102 C   0  0  0  0  0  0  0  0  0  0  0  0
  -32.3922  -17.7424   -9.2160 O   0  0  0  0  0  0  0  0  0  0  0  0
  -32.0521  -17.6358   -7.8531 C   0  0  0  0  0  0  0  0  0  0  0  0
  -32.6082  -18.8574   -7.1312 C   0  0  0  0  0  0  0  0  0  0  0  0
  -32.9139  -18.5716   -5.7907 O   0  0  0  0  0  0  0  0  0  0  0  0
  -33.8481  -19.1730   -7.9354 C   0  0  0  0  0  0  0  0  0  0  0  0
  -34.9792  -18.5327   -7.3962 O   0  0  0  0  0  0  0  0  0  0  0  0
  -32.0548  -18.5861   -5.2943 H   0  0  0  0  0  0  0  0  0  0  0  0
  -35.3379  -19.1313   -6.6895 H   0  0  0  0  0  0  0  0  0  0  0  0
  -33.5893  -23.0110  -13.4901 N   0  0  0  0  0  0  0  0  0  0  0  0
  -34.2293  -22.1642  -12.5353 C   0  0  0  0  0  0  0  0  0  0  0  0
  -35.5733  -22.2638  -12.3106 N   0  0  0  0  0  0  0  0  0  0  0  0
  -36.2038  -21.4641  -11.3905 C   0  0  0  0  0  0  0  0  0  0  0  0
  -35.4948  -20.5459  -10.6687 N   0  0  0  0  0  0  0  0  0  0  0  0
  -34.1624  -20.4509  -10.8922 C   0  0  0  0  0  0  0  0  0  0  0  0
  -33.5179  -21.2277  -11.7935 C   0  0  0  0  0  0  0  0  0  0  0  0
  -32.2048  -20.9349  -11.8167 N   0  0  0  0  0  0  0  0  0  0  0  0
  -32.1002  -19.9483  -10.8822 C   0  0  0  0  0  0  0  0  0  0  0  0
  -33.2828  -19.6410  -10.2871 N   0  0  0  0  0  0  0  0  0  0  0  0
  -32.5590  -22.9503  -13.6578 H   0  0  0  0  0  0  0  0  0  0  0  0
  -34.1521  -23.6964  -14.0437 H   0  0  0  0  0  0  0  0  0  0  0  0
  -30.5325  -17.5212   -7.7009 C   0  0  0  0  0  0  0  0  0  0  0  0
  -30.1233  -18.2695   -6.5801 O   0  0  0  0  0  0  0  0  0  0  0  0
  -28.4422  -18.5385   -6.6915 P   0  0  0  0  0  0  0  0  0  0  0  0
  -28.1732  -20.0148   -6.8766 O   0  0  0  0  0  0  0  0  0  0  0  0
  -27.7106  -18.0445   -5.2473 O   0  0  0  0  0  0  0  0  0  0  0  0
  -27.7837  -17.6922   -8.0162 O   0  0  0  0  0  0  0  0  0  0  0  0
  -26.0882  -17.7529   -7.8790 P   0  0  0  0  0  0  0  0  0  0  0  0
  -25.6895  -19.0183   -7.1529 O   0  0  0  0  0  0  0  0  0  0  0  0
  -25.4433  -17.7916   -9.4439 O   0  0  0  0  0  0  0  0  0  0  0  0
  -25.5159  -16.3819   -7.0406 O   0  0  0  0  0  0  0  0  0  0  0  0
  -24.0801  -16.8033   -6.2206 P   0  0  0  0  0  0  0  0  0  0  0  0
  -24.4992  -17.7291   -4.8687 O   0  0  0  0  0  0  0  0  0  0  0  0
  -23.0356  -17.7208   -7.1888 O   0  0  0  0  0  0  0  0  0  0  0  0
  -23.2592  -15.3813   -5.6789 S   0  0  0  0  0  0  0  0  0  0  0  0
  1 19  1  0  0  0
  1  2  1  0  0  0
  1  6  1  0  0  0
  2  3  1  0  0  0
  3 22  1  0  0  0
  3  4  1  0  0  0
  4  5  1  0  0  0
  4  6  1  0  0  0
  5  8  1  0  0  0
  6  7  1  0  0  0
  7  9  1  0  0  0
 10 11  1  0  0  0
 10 20  1  0  0  0
 10 21  1  0  0  0
 11 12  2  0  0  0
 11 16  1  0  0  0
 12 13  1  0  0  0
 13 14  2  0  0  0
 14 15  1  0  0  0
 15 16  2  0  0  0
 15 19  1  0  0  0
 16 17  1  0  0  0
 17 18  2  0  0  0
 18 19  1  0  0  0
 22 23  1  0  0  0
 23 24  1  0  0  0
 24 25  2  0  0  0
 24 26  1  0  0  0
 24 27  1  0  0  0
 27 28  1  0  0  0
 28 29  2  0  0  0
 28 30  1  0  0  0
 28 31  1  0  0  0
 31 32  1  0  0  0
 32 33  1  0  0  0
 32 34  1  0  0  0
 32 35  2  0  0  0
M  CHG 1  26  -1
M  CHG 1  30  -1
M  CHG 1  33  -1
M  CHG 1  34  -1
M  END
> <COMPND>
../0-casp/DBelp1.pdb

> <AUTHOR>
GENERATED BY OPEN BABEL 3.1.0

> <MASTER>
        0    0    0    0    0    0    0    0   35    0   35    0

> <minimizedAffinity>
-13.15139

> <CNNscore>
0.7906341553

> <CNNaffinity>
5.5979604721

> <CNN_VS>
4.4259386063

> <CNNaffinity_variance>
0.1431024820

$$$$



 35 37  0  0  0  0  0  0  0  0999 V2000
  -35.0937  -19.8344   -8.3527 C   0  0  0  0  0  0  0  0  0  0  0  0
  -34.4046  -18.6066   -8.4765 O   0  0  0  0  0  0  0  0  0  0  0  0
  -33.4565  -18.5421   -7.4367 C   0  0  0  0  0  0  0  0  0  0  0  0
  -33.1381  -19.9669   -6.9993 C   0  0  0  0  0  0  0  0  0  0  0  0
  -32.7701  -20.0227   -5.6453 O   0  0  0  0  0  0  0  0  0  0  0  0
  -34.4429  -20.6845   -7.2570 C   0  0  0  0  0  0  0  0  0  0  0  0
  -35.2590  -20.6807   -6.1107 O   0  0  0  0  0  0  0  0  0  0  0  0
  -31.8248  -19.7249   -5.5956 H   0  0  0  0  0  0  0  0  0  0  0  0
  -34.9871  -21.4630   -5.5626 H   0  0  0  0  0  0  0  0  0  0  0  0
  -33.9396  -22.6641  -13.6245 N   0  0  0  0  0  0  0  0  0  0  0  0
  -33.5617  -21.8364  -12.5242 C   0  0  0  0  0  0  0  0  0  0  0  0
  -32.3023  -21.3119  -12.4511 N   0  0  0  0  0  0  0  0  0  0  0  0
  -31.9243  -20.5074  -11.4054 C   0  0  0  0  0  0  0  0  0  0  0  0
  -32.8080  -20.2062  -10.4079 N   0  0  0  0  0  0  0  0  0  0  0  0
  -34.0563  -20.7260  -10.4841 C   0  0  0  0  0  0  0  0  0  0  0  0
  -34.4530  -21.5214  -11.5044 C   0  0  0  0  0  0  0  0  0  0  0  0
  -35.7345  -21.8973  -11.3403 N   0  0  0  0  0  0  0  0  0  0  0  0
  -36.0810  -21.2830  -10.1740 C   0  0  0  0  0  0  0  0  0  0  0  0
  -35.0760  -20.5445   -9.6337 N   0  0  0  0  0  0  0  0  0  0  0  0
  -34.9056  -23.0580  -13.6946 H   0  0  0  0  0  0  0  0  0  0  0  0
  -33.2439  -22.8956  -14.3697 H   0  0  0  0  0  0  0  0  0  0  0  0
  -32.2073  -17.7953   -7.9137 C   0  0  0  0  0  0  0  0  0  0  0  0
  -31.5770  -17.1958   -6.8061 O   0  0  0  0  0  0  0  0  0  0  0  0
  -29.9461  -17.6959   -6.7735 P   0  0  0  0  0  0  0  0  0  0  0  0
  -29.3214  -17.4866   -8.1344 O   0  0  0  0  0  0  0  0  0  0  0  0
  -29.8860  -19.3483   -6.4123 O   0  0  0  0  0  0  0  0  0  0  0  0
  -29.0644  -16.7991   -5.6232 O   0  0  0  0  0  0  0  0  0  0  0  0
  -27.7892  -17.7803   -5.0678 P   0  0  0  0  0  0  0  0  0  0  0  0
  -26.8368  -16.9441   -4.2425 O   0  0  0  0  0  0  0  0  0  0  0  0
  -28.4550  -18.9863   -4.0835 O   0  0  0  0  0  0  0  0  0  0  0  0
  -26.9700  -18.4843   -6.3881 O   0  0  0  0  0  0  0  0  0  0  0  0
  -25.7088  -17.4400   -6.8678 P   0  0  0  0  0  0  0  0  0  0  0  0
  -26.2938  -15.8537   -6.8228 O   0  0  0  0  0  0  0  0  0  0  0  0
  -24.3677  -17.5402   -5.8375 O   0  0  0  0  0  0  0  0  0  0  0  0
  -25.2165  -17.7976   -8.4862 S   0  0  0  0  0  0  0  0  0  0  0  0
  1 19  1  0  0  0
  1  2  1  0  0  0
  1  6  1  0  0  0
  2  3  1  0  0  0
  3 22  1  0  0  0
  3  4  1  0  0  0
  4  5  1  0  0  0
  4  6  1  0  0  0
  5  8  1  0  0  0
  6  7  1  0  0  0
  7  9  1  0  0  0
 10 11  1  0  0  0
 10 20  1  0  0  0
 10 21  1  0  0  0
 11 12  2  0  0  0
 11 16  1  0  0  0
 12 13  1  0  0  0
 13 14  2  0  0  0
 14 15  1  0  0  0
 15 16  2  0  0  0
 15 19  1  0  0  0
 16 17  1  0  0  0
 17 18  2  0  0  0
 18 19  1  0  0  0
 22 23  1  0  0  0
 23 24  1  0  0  0
 24 25  2  0  0  0
 24 26  1  0  0  0
 24 27  1  0  0  0
 27 28  1  0  0  0
 28 29  2  0  0  0
 28 30  1  0  0  0
 28 31  1  0  0  0
 31 32  1  0  0  0
 32 33  1  0  0  0
 32 34  1  0  0  0
 32 35  2  0  0  0
M  CHG 1  26  -1
M  CHG 1  30  -1
M  CHG 1  33  -1
M  CHG 1  34  -1
M  END
> <COMPND>
../0-casp/DBelp1.pdb

> <AUTHOR>
GENERATED BY OPEN BABEL 3.1.0

> <MASTER>
        0    0    0    0    0    0    0    0   35    0   35    0

> <minimizedAffinity>
-11.62326

> <CNNscore>
0.7545068264

> <CNNaffinity>
5.5988287926

> <CNN_VS>
4.2243547440

> <CNNaffinity_variance>
0.2420691252

$$$$



 35 37  0  0  0  0  0  0  0  0999 V2000
  -33.3781  -18.4668   -9.3185 C   0  0  0  0  0  0  0  0  0  0  0  0
  -32.2296  -17.6442   -9.3594 O   0  0  0  0  0  0  0  0  0  0  0  0
  -31.7784  -17.4745   -8.0357 C   0  0  0  0  0  0  0  0  0  0  0  0
  -32.2859  -18.6505   -7.2098 C   0  0  0  0  0  0  0  0  0  0  0  0
  -32.4784  -18.2938   -5.8653 O   0  0  0  0  0  0  0  0  0  0  0  0
  -33.5905  -18.9882   -7.8939 C   0  0  0  0  0  0  0  0  0  0  0  0
  -34.6673  -18.3058   -7.2981 O   0  0  0  0  0  0  0  0  0  0  0  0
  -31.5818  -18.2957   -5.4400 H   0  0  0  0  0  0  0  0  0  0  0  0
  -34.9731  -18.8632   -6.5352 H   0  0  0  0  0  0  0  0  0  0  0  0
  -33.8223  -23.0697  -13.2869 N   0  0  0  0  0  0  0  0  0  0  0  0
  -34.3804  -22.1555  -12.3428 C   0  0  0  0  0  0  0  0  0  0  0  0
  -35.7150  -22.1867  -12.0523 N   0  0  0  0  0  0  0  0  0  0  0  0
  -36.2671  -21.3213  -11.1413 C   0  0  0  0  0  0  0  0  0  0  0  0
  -35.4870  -20.4046  -10.4950 N   0  0  0  0  0  0  0  0  0  0  0  0
  -34.1640  -20.3774  -10.7835 C   0  0  0  0  0  0  0  0  0  0  0  0
  -33.5961  -21.2196  -11.6775 C   0  0  0  0  0  0  0  0  0  0  0  0
  -32.2746  -20.9855  -11.7743 N   0  0  0  0  0  0  0  0  0  0  0  0
  -32.0846  -19.9649  -10.8910 C   0  0  0  0  0  0  0  0  0  0  0  0
  -33.2236  -19.5812  -10.2567 N   0  0  0  0  0  0  0  0  0  0  0  0
  -32.7996  -23.0612  -13.5043 H   0  0  0  0  0  0  0  0  0  0  0  0
  -34.4389  -23.7532  -13.7824 H   0  0  0  0  0  0  0  0  0  0  0  0
  -30.2503  -17.3741   -8.0131 C   0  0  0  0  0  0  0  0  0  0  0  0
  -29.7523  -18.1533   -6.9508 O   0  0  0  0  0  0  0  0  0  0  0  0
  -28.6468  -17.2096   -6.0573 P   0  0  0  0  0  0  0  0  0  0  0  0
  -27.9944  -18.0611   -4.9918 O   0  0  0  0  0  0  0  0  0  0  0  0
  -29.4885  -15.9568   -5.2914 O   0  0  0  0  0  0  0  0  0  0  0  0
  -27.4325  -16.5809   -7.0745 O   0  0  0  0  0  0  0  0  0  0  0  0
  -26.3673  -17.8523   -7.4572 P   0  0  0  0  0  0  0  0  0  0  0  0
  -27.0759  -19.1744   -7.2641 O   0  0  0  0  0  0  0  0  0  0  0  0
  -25.9361  -17.6935   -9.0867 O   0  0  0  0  0  0  0  0  0  0  0  0
  -24.9780  -17.7735   -6.4706 O   0  0  0  0  0  0  0  0  0  0  0  0
  -24.2172  -16.2664   -6.7182 P   0  0  0  0  0  0  0  0  0  0  0  0
  -23.2252  -16.3959   -8.0818 O   0  0  0  0  0  0  0  0  0  0  0  0
  -25.3345  -15.0225   -6.9912 O   0  0  0  0  0  0  0  0  0  0  0  0
  -23.2299  -15.8620   -5.3576 S   0  0  0  0  0  0  0  0  0  0  0  0
  1 19  1  0  0  0
  1  2  1  0  0  0
  1  6  1  0  0  0
  2  3  1  0  0  0
  3 22  1  0  0  0
  3  4  1  0  0  0
  4  5  1  0  0  0
  4  6  1  0  0  0
  5  8  1  0  0  0
  6  7  1  0  0  0
  7  9  1  0  0  0
 10 11  1  0  0  0
 10 20  1  0  0  0
 10 21  1  0  0  0
 11 12  2  0  0  0
 11 16  1  0  0  0
 12 13  1  0  0  0
 13 14  2  0  0  0
 14 15  1  0  0  0
 15 16  2  0  0  0
 15 19  1  0  0  0
 16 17  1  0  0  0
 17 18  2  0  0  0
 18 19  1  0  0  0
 22 23  1  0  0  0
 23 24  1  0  0  0
 24 25  2  0  0  0
 24 26  1  0  0  0
 24 27  1  0  0  0
 27 28  1  0  0  0
 28 29  2  0  0  0
 28 30  1  0  0  0
 28 31  1  0  0  0
 31 32  1  0  0  0
 32 33  1  0  0  0
 32 34  1  0  0  0
 32 35  2  0  0  0
M  CHG 1  26  -1
M  CHG 1  30  -1
M  CHG 1  33  -1
M  CHG 1  34  -1
M  END
> <COMPND>
../0-casp/DBelp1.pdb

> <AUTHOR>
GENERATED BY OPEN BABEL 3.1.0

> <MASTER>
        0    0    0    0    0    0    0    0   35    0   35    0

> <minimizedAffinity>
-12.99851

> <CNNscore>
0.7438347936

> <CNNaffinity>
5.7207293510

> <CNN_VS>
4.2552776337

> <CNNaffinity_variance>
0.1877577007

$$$$



 35 37  0  0  0  0  0  0  0  0999 V2000
  -34.8189  -19.6153   -8.2767 C   0  0  0  0  0  0  0  0  0  0  0  0
  -33.9996  -18.4745   -8.4343 O   0  0  0  0  0  0  0  0  0  0  0  0
  -33.0334  -18.4975   -7.4095 C   0  0  0  0  0  0  0  0  0  0  0  0
  -32.8685  -19.9409   -6.9489 C   0  0  0  0  0  0  0  0  0  0  0  0
  -32.4869  -20.0131   -5.5994 O   0  0  0  0  0  0  0  0  0  0  0  0
  -34.2490  -20.5130   -7.1740 C   0  0  0  0  0  0  0  0  0  0  0  0
  -35.0409  -20.3977   -6.0165 O   0  0  0  0  0  0  0  0  0  0  0  0
  -31.5137  -19.8218   -5.5689 H   0  0  0  0  0  0  0  0  0  0  0  0
  -34.8488  -21.1955   -5.4570 H   0  0  0  0  0  0  0  0  0  0  0  0
  -34.0733  -22.6021  -13.5354 N   0  0  0  0  0  0  0  0  0  0  0  0
  -33.5963  -21.7841  -12.4669 C   0  0  0  0  0  0  0  0  0  0  0  0
  -32.3025  -21.3450  -12.4538 N   0  0  0  0  0  0  0  0  0  0  0  0
  -31.8291  -20.5510  -11.4394 C   0  0  0  0  0  0  0  0  0  0  0  0
  -32.6492  -20.1744  -10.4135 N   0  0  0  0  0  0  0  0  0  0  0  0
  -33.9316  -20.6096  -10.4303 C   0  0  0  0  0  0  0  0  0  0  0  0
  -34.4220  -21.3929  -11.4188 C   0  0  0  0  0  0  0  0  0  0  0  0
  -35.7181  -21.6784  -11.1968 N   0  0  0  0  0  0  0  0  0  0  0  0
  -35.9746  -21.0231  -10.0296 C   0  0  0  0  0  0  0  0  0  0  0  0
  -34.9012  -20.3457   -9.5437 N   0  0  0  0  0  0  0  0  0  0  0  0
  -35.0657  -22.9307  -13.5597 H   0  0  0  0  0  0  0  0  0  0  0  0
  -33.4258  -22.8923  -14.3031 H   0  0  0  0  0  0  0  0  0  0  0  0
  -31.7169  -17.9034   -7.9187 C   0  0  0  0  0  0  0  0  0  0  0  0
  -31.2880  -16.9005   -7.0276 O   0  0  0  0  0  0  0  0  0  0  0  0
  -29.7620  -17.3433   -6.4061 P   0  0  0  0  0  0  0  0  0  0  0  0
  -28.7368  -17.3346   -7.5173 O   0  0  0  0  0  0  0  0  0  0  0  0
  -29.8571  -18.9154   -5.7864 O   0  0  0  0  0  0  0  0  0  0  0  0
  -29.2655  -16.2514   -5.1953 O   0  0  0  0  0  0  0  0  0  0  0  0
  -27.7233  -16.7356   -4.6617 P   0  0  0  0  0  0  0  0  0  0  0  0
  -27.4856  -16.2016   -3.2667 O   0  0  0  0  0  0  0  0  0  0  0  0
  -27.7002  -18.4278   -4.6128 O   0  0  0  0  0  0  0  0  0  0  0  0
  -26.5236  -16.1615   -5.7297 O   0  0  0  0  0  0  0  0  0  0  0  0
  -26.4743  -14.4587   -5.6311 P   0  0  0  0  0  0  0  0  0  0  0  0
  -27.6983  -13.8391   -6.6202 O   0  0  0  0  0  0  0  0  0  0  0  0
  -26.7345  -13.9011   -4.0527 O   0  0  0  0  0  0  0  0  0  0  0  0
  -24.9537  -13.8683   -6.2045 S   0  0  0  0  0  0  0  0  0  0  0  0
  1 19  1  0  0  0
  1  2  1  0  0  0
  1  6  1  0  0  0
  2  3  1  0  0  0
  3 22  1  0  0  0
  3  4  1  0  0  0
  4  5  1  0  0  0
  4  6  1  0  0  0
  5  8  1  0  0  0
  6  7  1  0  0  0
  7  9  1  0  0  0
 10 11  1  0  0  0
 10 20  1  0  0  0
 10 21  1  0  0  0
 11 12  2  0  0  0
 11 16  1  0  0  0
 12 13  1  0  0  0
 13 14  2  0  0  0
 14 15  1  0  0  0
 15 16  2  0  0  0
 15 19  1  0  0  0
 16 17  1  0  0  0
 17 18  2  0  0  0
 18 19  1  0  0  0
 22 23  1  0  0  0
 23 24  1  0  0  0
 24 25  2  0  0  0
 24 26  1  0  0  0
 24 27  1  0  0  0
 27 28  1  0  0  0
 28 29  2  0  0  0
 28 30  1  0  0  0
 28 31  1  0  0  0
 31 32  1  0  0  0
 32 33  1  0  0  0
 32 34  1  0  0  0
 32 35  2  0  0  0
M  CHG 1  26  -1
M  CHG 1  30  -1
M  CHG 1  33  -1
M  CHG 1  34  -1
M  END
> <COMPND>
../0-casp/DBelp1.pdb

> <AUTHOR>
GENERATED BY OPEN BABEL 3.1.0

> <MASTER>
        0    0    0    0    0    0    0    0   35    0   35    0

> <minimizedAffinity>
-11.84845

> <CNNscore>
0.6657243371

> <CNNaffinity>
5.5127644539

> <CNN_VS>
3.6699814796

> <CNNaffinity_variance>
0.2114674151

$$$$



 35 37  0  0  0  0  0  0  0  0999 V2000
  -33.1337  -18.3736   -9.3427 C   0  0  0  0  0  0  0  0  0  0  0  0
  -31.9453  -17.6085   -9.3416 O   0  0  0  0  0  0  0  0  0  0  0  0
  -31.5317  -17.4638   -8.0028 C   0  0  0  0  0  0  0  0  0  0  0  0
  -32.1244  -18.6148   -7.1988 C   0  0  0  0  0  0  0  0  0  0  0  0
  -32.3448  -18.2516   -5.8603 O   0  0  0  0  0  0  0  0  0  0  0  0
  -33.4200  -18.8865   -7.9279 C   0  0  0  0  0  0  0  0  0  0  0  0
  -34.4815  -18.1529   -7.3667 O   0  0  0  0  0  0  0  0  0  0  0  0
  -31.4644  -18.2985   -5.4048 H   0  0  0  0  0  0  0  0  0  0  0  0
  -34.8402  -18.6959   -6.6165 H   0  0  0  0  0  0  0  0  0  0  0  0
  -33.6739  -22.9766  -13.2989 N   0  0  0  0  0  0  0  0  0  0  0  0
  -34.2121  -22.0509  -12.3546 C   0  0  0  0  0  0  0  0  0  0  0  0
  -35.5459  -22.0584  -12.0585 N   0  0  0  0  0  0  0  0  0  0  0  0
  -36.0792  -21.1817  -11.1471 C   0  0  0  0  0  0  0  0  0  0  0  0
  -35.2806  -20.2772  -10.5061 N   0  0  0  0  0  0  0  0  0  0  0  0
  -33.9586  -20.2734  -10.8002 C   0  0  0  0  0  0  0  0  0  0  0  0
  -33.4090  -21.1273  -11.6946 C   0  0  0  0  0  0  0  0  0  0  0  0
  -32.0841  -20.9163  -11.7974 N   0  0  0  0  0  0  0  0  0  0  0  0
  -31.8729  -19.8972  -10.9172 C   0  0  0  0  0  0  0  0  0  0  0  0
  -33.0024  -19.4925  -10.2790 N   0  0  0  0  0  0  0  0  0  0  0  0
  -32.6521  -22.9863  -13.5206 H   0  0  0  0  0  0  0  0  0  0  0  0
  -34.3042  -23.6505  -13.7904 H   0  0  0  0  0  0  0  0  0  0  0  0
  -30.0022  -17.4389   -7.9280 C   0  0  0  0  0  0  0  0  0  0  0  0
  -29.5786  -18.2645   -6.8684 O   0  0  0  0  0  0  0  0  0  0  0  0
  -28.5559  -17.3563   -5.8484 P   0  0  0  0  0  0  0  0  0  0  0  0
  -28.2051  -18.1698   -4.6231 O   0  0  0  0  0  0  0  0  0  0  0  0
  -29.3790  -15.9665   -5.3428 O   0  0  0  0  0  0  0  0  0  0  0  0
  -27.1157  -16.9381   -6.6580 O   0  0  0  0  0  0  0  0  0  0  0  0
  -26.6223  -15.4136   -6.0837 P   0  0  0  0  0  0  0  0  0  0  0  0
  -25.2823  -15.0598   -6.6894 O   0  0  0  0  0  0  0  0  0  0  0  0
  -27.7698  -14.2748   -6.5868 O   0  0  0  0  0  0  0  0  0  0  0  0
  -26.5183  -15.4312   -4.3812 O   0  0  0  0  0  0  0  0  0  0  0  0
  -25.0697  -16.2124   -3.9307 P   0  0  0  0  0  0  0  0  0  0  0  0
  -25.3005  -16.9103   -2.4075 O   0  0  0  0  0  0  0  0  0  0  0  0
  -24.6396  -17.4394   -5.0167 O   0  0  0  0  0  0  0  0  0  0  0  0
  -23.7796  -15.0667   -3.8196 S   0  0  0  0  0  0  0  0  0  0  0  0
  1 19  1  0  0  0
  1  2  1  0  0  0
  1  6  1  0  0  0
  2  3  1  0  0  0
  3 22  1  0  0  0
  3  4  1  0  0  0
  4  5  1  0  0  0
  4  6  1  0  0  0
  5  8  1  0  0  0
  6  7  1  0  0  0
  7  9  1  0  0  0
 10 11  1  0  0  0
 10 20  1  0  0  0
 10 21  1  0  0  0
 11 12  2  0  0  0
 11 16  1  0  0  0
 12 13  1  0  0  0
 13 14  2  0  0  0
 14 15  1  0  0  0
 15 16  2  0  0  0
 15 19  1  0  0  0
 16 17  1  0  0  0
 17 18  2  0  0  0
 18 19  1  0  0  0
 22 23  1  0  0  0
 23 24  1  0  0  0
 24 25  2  0  0  0
 24 26  1  0  0  0
 24 27  1  0  0  0
 27 28  1  0  0  0
 28 29  2  0  0  0
 28 30  1  0  0  0
 28 31  1  0  0  0
 31 32  1  0  0  0
 32 33  1  0  0  0
 32 34  1  0  0  0
 32 35  2  0  0  0
M  CHG 1  26  -1
M  CHG 1  30  -1
M  CHG 1  33  -1
M  CHG 1  34  -1
M  END
> <COMPND>
../0-casp/DBelp1.pdb

> <AUTHOR>
GENERATED BY OPEN BABEL 3.1.0

> <MASTER>
        0    0    0    0    0    0    0    0   35    0   35    0

> <minimizedAffinity>
-11.44365

> <CNNscore>
0.5980178118

> <CNNaffinity>
5.3088316917

> <CNN_VS>
3.1747758389

> <CNNaffinity_variance>
0.2659747303

$$$$



 35 37  0  0  0  0  0  0  0  0999 V2000
  -34.2416  -18.8975   -9.0766 C   0  0  0  0  0  0  0  0  0  0  0  0
  -32.9673  -18.3339   -9.3131 O   0  0  0  0  0  0  0  0  0  0  0  0
  -32.3247  -18.1926   -8.0675 C   0  0  0  0  0  0  0  0  0  0  0  0
  -32.9456  -19.1934   -7.1001 C   0  0  0  0  0  0  0  0  0  0  0  0
  -32.8885  -18.7350   -5.7740 O   0  0  0  0  0  0  0  0  0  0  0  0
  -34.3683  -19.2887   -7.6009 C   0  0  0  0  0  0  0  0  0  0  0  0
  -35.2018  -18.3680   -6.9394 O   0  0  0  0  0  0  0  0  0  0  0  0
  -31.9631  -18.9004   -5.4562 H   0  0  0  0  0  0  0  0  0  0  0  0
  -35.5117  -18.8094   -6.1054 H   0  0  0  0  0  0  0  0  0  0  0  0
  -36.0393  -23.3543  -12.8231 N   0  0  0  0  0  0  0  0  0  0  0  0
  -36.2945  -22.2288  -11.9826 C   0  0  0  0  0  0  0  0  0  0  0  0
  -37.5681  -21.7640  -11.8133 N   0  0  0  0  0  0  0  0  0  0  0  0
  -37.8331  -20.6888  -11.0025 C   0  0  0  0  0  0  0  0  0  0  0  0
  -36.8213  -20.0566  -10.3368 N   0  0  0  0  0  0  0  0  0  0  0  0
  -35.5602  -20.5207  -10.5051 C   0  0  0  0  0  0  0  0  0  0  0  0
  -35.2732  -21.5786  -11.2986 C   0  0  0  0  0  0  0  0  0  0  0  0
  -33.9521  -21.8338  -11.2871 N   0  0  0  0  0  0  0  0  0  0  0  0
  -33.4686  -20.8776  -10.4447 C   0  0  0  0  0  0  0  0  0  0  0  0
  -34.4343  -20.0670   -9.9374 N   0  0  0  0  0  0  0  0  0  0  0  0
  -35.0692  -23.7244  -12.9469 H   0  0  0  0  0  0  0  0  0  0  0  0
  -36.8253  -23.8146  -13.3362 H   0  0  0  0  0  0  0  0  0  0  0  0
  -30.8173  -18.4099   -8.2292 C   0  0  0  0  0  0  0  0  0  0  0  0
  -30.3221  -19.0745   -7.0905 O   0  0  0  0  0  0  0  0  0  0  0  0
  -29.5262  -17.9353   -6.1006 P   0  0  0  0  0  0  0  0  0  0  0  0
  -30.3160  -17.7253   -4.8285 O   0  0  0  0  0  0  0  0  0  0  0  0
  -29.4435  -16.4577   -6.9219 O   0  0  0  0  0  0  0  0  0  0  0  0
  -27.9644  -18.4809   -5.6910 O   0  0  0  0  0  0  0  0  0  0  0  0
  -26.9838  -17.1108   -5.4490 P   0  0  0  0  0  0  0  0  0  0  0  0
  -27.7582  -16.0721   -4.6688 O   0  0  0  0  0  0  0  0  0  0  0  0
  -25.6392  -17.5910   -4.5390 O   0  0  0  0  0  0  0  0  0  0  0  0
  -26.4815  -16.4738   -6.9495 O   0  0  0  0  0  0  0  0  0  0  0  0
  -25.5325  -17.6446   -7.7496 P   0  0  0  0  0  0  0  0  0  0  0  0
  -25.9305  -19.1633   -7.1207 O   0  0  0  0  0  0  0  0  0  0  0  0
  -25.8200  -17.6698   -9.4190 O   0  0  0  0  0  0  0  0  0  0  0  0
  -23.8526  -17.3543   -7.4615 S   0  0  0  0  0  0  0  0  0  0  0  0
  1 19  1  0  0  0
  1  2  1  0  0  0
  1  6  1  0  0  0
  2  3  1  0  0  0
  3 22  1  0  0  0
  3  4  1  0  0  0
  4  5  1  0  0  0
  4  6  1  0  0  0
  5  8  1  0  0  0
  6  7  1  0  0  0
  7  9  1  0  0  0
 10 11  1  0  0  0
 10 20  1  0  0  0
 10 21  1  0  0  0
 11 12  2  0  0  0
 11 16  1  0  0  0
 12 13  1  0  0  0
 13 14  2  0  0  0
 14 15  1  0  0  0
 15 16  2  0  0  0
 15 19  1  0  0  0
 16 17  1  0  0  0
 17 18  2  0  0  0
 18 19  1  0  0  0
 22 23  1  0  0  0
 23 24  1  0  0  0
 24 25  2  0  0  0
 24 26  1  0  0  0
 24 27  1  0  0  0
 27 28  1  0  0  0
 28 29  2  0  0  0
 28 30  1  0  0  0
 28 31  1  0  0  0
 31 32  1  0  0  0
 32 33  1  0  0  0
 32 34  1  0  0  0
 32 35  2  0  0  0
M  CHG 1  26  -1
M  CHG 1  30  -1
M  CHG 1  33  -1
M  CHG 1  34  -1
M  END
> <COMPND>
../0-casp/DBelp1.pdb

> <AUTHOR>
GENERATED BY OPEN BABEL 3.1.0

> <MASTER>
        0    0    0    0    0    0    0    0   35    0   35    0

> <minimizedAffinity>
-13.35508

> <CNNscore>
0.5596479774

> <CNNaffinity>
5.5264358521

> <CNN_VS>
3.0928585529

> <CNNaffinity_variance>
0.2682694793

$$$$



 35 37  0  0  0  0  0  0  0  0999 V2000
  -34.8032  -19.7603   -8.1588 C   0  0  0  0  0  0  0  0  0  0  0  0
  -33.7043  -18.8715   -8.1575 O   0  0  0  0  0  0  0  0  0  0  0  0
  -32.8600  -19.2378   -7.0909 C   0  0  0  0  0  0  0  0  0  0  0  0
  -33.1147  -20.7058   -6.7702 C   0  0  0  0  0  0  0  0  0  0  0  0
  -32.8709  -20.9897   -5.4167 O   0  0  0  0  0  0  0  0  0  0  0  0
  -34.5752  -20.8664   -7.1239 C   0  0  0  0  0  0  0  0  0  0  0  0
  -35.3963  -20.6401   -6.0038 O   0  0  0  0  0  0  0  0  0  0  0  0
  -31.8869  -21.0693   -5.3162 H   0  0  0  0  0  0  0  0  0  0  0  0
  -35.4635  -21.5039   -5.5184 H   0  0  0  0  0  0  0  0  0  0  0  0
  -34.4836  -22.4623  -13.6112 N   0  0  0  0  0  0  0  0  0  0  0  0
  -33.8897  -21.9252  -12.4291 C   0  0  0  0  0  0  0  0  0  0  0  0
  -32.5337  -21.9463  -12.2628 N   0  0  0  0  0  0  0  0  0  0  0  0
  -31.9450  -21.4269  -11.1371 C   0  0  0  0  0  0  0  0  0  0  0  0
  -32.7078  -20.8677  -10.1511 N   0  0  0  0  0  0  0  0  0  0  0  0
  -34.0514  -20.8465  -10.3196 C   0  0  0  0  0  0  0  0  0  0  0  0
  -34.6555  -21.3520  -11.4200 C   0  0  0  0  0  0  0  0  0  0  0  0
  -35.9901  -21.2015  -11.3378 N   0  0  0  0  0  0  0  0  0  0  0  0
  -36.1491  -20.5785  -10.1361 C   0  0  0  0  0  0  0  0  0  0  0  0
  -34.9756  -20.3338   -9.4957 N   0  0  0  0  0  0  0  0  0  0  0  0
  -35.5193  -22.4375  -13.7519 H   0  0  0  0  0  0  0  0  0  0  0  0
  -33.8837  -22.9000  -14.3471 H   0  0  0  0  0  0  0  0  0  0  0  0
  -31.3986  -18.9777   -7.4679 C   0  0  0  0  0  0  0  0  0  0  0  0
  -30.5667  -19.4133   -6.4182 O   0  0  0  0  0  0  0  0  0  0  0  0
  -29.1930  -18.4030   -6.3595 P   0  0  0  0  0  0  0  0  0  0  0  0
  -29.0343  -17.8387   -4.9658 O   0  0  0  0  0  0  0  0  0  0  0  0
  -29.4155  -17.1117   -7.4308 O   0  0  0  0  0  0  0  0  0  0  0  0
  -27.7856  -19.2770   -6.7593 O   0  0  0  0  0  0  0  0  0  0  0  0
  -26.5770  -18.1520   -7.1730 P   0  0  0  0  0  0  0  0  0  0  0  0
  -26.6423  -17.8701   -8.6575 O   0  0  0  0  0  0  0  0  0  0  0  0
  -26.8924  -16.7193   -6.3279 O   0  0  0  0  0  0  0  0  0  0  0  0
  -25.0393  -18.7578   -6.7507 O   0  0  0  0  0  0  0  0  0  0  0  0
  -23.8941  -17.5037   -6.9159 P   0  0  0  0  0  0  0  0  0  0  0  0
  -22.4205  -18.1945   -7.3759 O   0  0  0  0  0  0  0  0  0  0  0  0
  -24.3442  -16.3775   -8.0988 O   0  0  0  0  0  0  0  0  0  0  0  0
  -23.6719  -16.6914   -5.4058 S   0  0  0  0  0  0  0  0  0  0  0  0
  1 19  1  0  0  0
  1  2  1  0  0  0
  1  6  1  0  0  0
  2  3  1  0  0  0
  3 22  1  0  0  0
  3  4  1  0  0  0
  4  5  1  0  0  0
  4  6  1  0  0  0
  5  8  1  0  0  0
  6  7  1  0  0  0
  7  9  1  0  0  0
 10 11  1  0  0  0
 10 20  1  0  0  0
 10 21  1  0  0  0
 11 12  2  0  0  0
 11 16  1  0  0  0
 12 13  1  0  0  0
 13 14  2  0  0  0
 14 15  1  0  0  0
 15 16  2  0  0  0
 15 19  1  0  0  0
 16 17  1  0  0  0
 17 18  2  0  0  0
 18 19  1  0  0  0
 22 23  1  0  0  0
 23 24  1  0  0  0
 24 25  2  0  0  0
 24 26  1  0  0  0
 24 27  1  0  0  0
 27 28  1  0  0  0
 28 29  2  0  0  0
 28 30  1  0  0  0
 28 31  1  0  0  0
 31 32  1  0  0  0
 32 33  1  0  0  0
 32 34  1  0  0  0
 32 35  2  0  0  0
M  CHG 1  26  -1
M  CHG 1  30  -1
M  CHG 1  33  -1
M  CHG 1  34  -1
M  END
> <COMPND>
../0-casp/DBelp1.pdb

> <AUTHOR>
GENERATED BY OPEN BABEL 3.1.0

> <MASTER>
        0    0    0    0    0    0    0    0   35    0   35    0

> <minimizedAffinity>
-13.65181

> <CNNscore>
0.5376033783

> <CNNaffinity>
5.4770193100

> <CNN_VS>
2.9444639683

> <CNNaffinity_variance>
0.1439959705

$$$$



 35 37  0  0  0  0  0  0  0  0999 V2000
  -32.8023  -18.5071   -9.1089 C   0  0  0  0  0  0  0  0  0  0  0  0
  -31.5879  -17.7842   -9.1137 O   0  0  0  0  0  0  0  0  0  0  0  0
  -31.0824  -17.7895   -7.7988 C   0  0  0  0  0  0  0  0  0  0  0  0
  -31.6652  -18.9970   -7.0741 C   0  0  0  0  0  0  0  0  0  0  0  0
  -31.7835  -18.7649   -5.6942 O   0  0  0  0  0  0  0  0  0  0  0  0
  -33.0150  -19.1519   -7.7357 C   0  0  0  0  0  0  0  0  0  0  0  0
  -34.0087  -18.4460   -7.0326 O   0  0  0  0  0  0  0  0  0  0  0  0
  -30.8777  -18.8857   -5.3074 H   0  0  0  0  0  0  0  0  0  0  0  0
  -34.3383  -19.0508   -6.3172 H   0  0  0  0  0  0  0  0  0  0  0  0
  -33.7775  -22.7083  -13.4137 N   0  0  0  0  0  0  0  0  0  0  0  0
  -34.2084  -21.8832  -12.3311 C   0  0  0  0  0  0  0  0  0  0  0  0
  -35.5024  -21.9305  -11.8950 N   0  0  0  0  0  0  0  0  0  0  0  0
  -35.9320  -21.1510  -10.8503 C   0  0  0  0  0  0  0  0  0  0  0  0
  -35.0667  -20.3065  -10.2140 N   0  0  0  0  0  0  0  0  0  0  0  0
  -33.7843  -20.2631  -10.6472 C   0  0  0  0  0  0  0  0  0  0  0  0
  -33.3366  -21.0214  -11.6747 C   0  0  0  0  0  0  0  0  0  0  0  0
  -32.0300  -20.7904  -11.8986 N   0  0  0  0  0  0  0  0  0  0  0  0
  -31.7226  -19.8600  -10.9512 C   0  0  0  0  0  0  0  0  0  0  0  0
  -32.7756  -19.5286  -10.1585 N   0  0  0  0  0  0  0  0  0  0  0  0
  -32.7857  -22.6878  -13.7441 H   0  0  0  0  0  0  0  0  0  0  0  0
  -34.4588  -23.3364  -13.8976 H   0  0  0  0  0  0  0  0  0  0  0  0
  -29.5515  -17.8208   -7.8273 C   0  0  0  0  0  0  0  0  0  0  0  0
  -29.0537  -16.9583   -6.8314 O   0  0  0  0  0  0  0  0  0  0  0  0
  -28.3487  -17.9031   -5.5980 P   0  0  0  0  0  0  0  0  0  0  0  0
  -28.1985  -19.3309   -6.0724 O   0  0  0  0  0  0  0  0  0  0  0  0
  -29.3725  -17.8985   -4.2503 O   0  0  0  0  0  0  0  0  0  0  0  0
  -26.8097  -17.2999   -5.1830 O   0  0  0  0  0  0  0  0  0  0  0  0
  -26.6839  -17.3246   -3.4856 P   0  0  0  0  0  0  0  0  0  0  0  0
  -27.2883  -16.0587   -2.9202 O   0  0  0  0  0  0  0  0  0  0  0  0
  -27.5667  -18.6542   -2.9205 O   0  0  0  0  0  0  0  0  0  0  0  0
  -25.0491  -17.4622   -3.0183 O   0  0  0  0  0  0  0  0  0  0  0  0
  -24.9825  -18.1681   -1.4663 P   0  0  0  0  0  0  0  0  0  0  0  0
  -26.3214  -17.6283   -0.5852 O   0  0  0  0  0  0  0  0  0  0  0  0
  -25.0364  -19.8602   -1.5298 O   0  0  0  0  0  0  0  0  0  0  0  0
  -23.5463  -17.6707   -0.6421 S   0  0  0  0  0  0  0  0  0  0  0  0
  1 19  1  0  0  0
  1  2  1  0  0  0
  1  6  1  0  0  0
  2  3  1  0  0  0
  3 22  1  0  0  0
  3  4  1  0  0  0
  4  5  1  0  0  0
  4  6  1  0  0  0
  5  8  1  0  0  0
  6  7  1  0  0  0
  7  9  1  0  0  0
 10 11  1  0  0  0
 10 20  1  0  0  0
 10 21  1  0  0  0
 11 12  2  0  0  0
 11 16  1  0  0  0
 12 13  1  0  0  0
 13 14  2  0  0  0
 14 15  1  0  0  0
 15 16  2  0  0  0
 15 19  1  0  0  0
 16 17  1  0  0  0
 17 18  2  0  0  0
 18 19  1  0  0  0
 22 23  1  0  0  0
 23 24  1  0  0  0
 24 25  2  0  0  0
 24 26  1  0  0  0
 24 27  1  0  0  0
 27 28  1  0  0  0
 28 29  2  0  0  0
 28 30  1  0  0  0
 28 31  1  0  0  0
 31 32  1  0  0  0
 32 33  1  0  0  0
 32 34  1  0  0  0
 32 35  2  0  0  0
M  CHG 1  26  -1
M  CHG 1  30  -1
M  CHG 1  33  -1
M  CHG 1  34  -1
M  END
> <COMPND>
../0-casp/DBelp1.pdb

> <AUTHOR>
GENERATED BY OPEN BABEL 3.1.0

> <MASTER>
        0    0    0    0    0    0    0    0   35    0   35    0

> <minimizedAffinity>
-12.47658

> <CNNscore>
0.5274094939

> <CNNaffinity>
5.3014216423

> <CNN_VS>
2.7960200310

> <CNNaffinity_variance>
0.2679936290

$$$$
